 &time_control
 run_days                            = 2,
 run_hours                           = 0,
 run_minutes                         = 0,
 run_seconds                         = 0,
 start_year                          = 2016, 2016, 2016, 2016,
 start_month                         = 05,   05,   05,   05,
 start_day                           = 01,   01,   01,   01,
 start_hour                          = 00,   00,   00,   00,
 start_minute                        = 00,   00,   00,   00,
 start_second                        = 00,   00,   00,   00,
 end_year                            = 2016, 2016, 2016, 2016,
 end_month                           = 05,   05,   05,   05,
 end_day                             = 03,   03,   03,   03,
 end_hour                            = 00,   00,   00,   00,
 end_minute                          = 00,   00,   00,   00,
 end_second                          = 00,   00,   00,   00,
 interval_seconds                    = 21600
 input_from_file                     = .true.,.true.,.true.,.true.,
 history_interval                    = 180,  180,  60,   60,
 frames_per_outfile                  = 1,    1,    1,    1,
 restart                             = .false.,
 restart_interval                    = 5000,
 io_form_history                     = 2
 io_form_restart                     = 2
 io_form_input                       = 2
 io_form_boundary                    = 2
 debug_level                         = 2
 /

 &domains
 time_step                           = 135,
 time_step_fract_num                 = 0,
 time_step_fract_den                 = 1,
 max_dom                             = 4,
 e_we                                = 100,   103,   100,   103,
 e_sn                                = 75,    76,    73,    76,
 e_vert                              = 38,    38,    38,    38,
 p_top_requested                     = 5000,
 num_metgrid_levels                  = 38,
 num_metgrid_soil_levels             = 4,
 dx                                  = 27000, 9000,  3000, 1000,
 dy                                  = 27000, 9000,  3000, 1000,
 grid_id                             = 1,     2,     3,    4,
 parent_id                           = 0,     1,     2,    3,
 i_parent_start                      = 1,     33,    35,   33,
 j_parent_start                      = 1,     25,    26,   25,
 parent_grid_ratio                   = 1,     3,     3,    3,
 parent_time_step_ratio              = 1,     3,     3,    3,
 feedback                            = 1,
 smooth_option                       = 0,
 /

 &physics
 physics_suite                       = 'CONUS'
 radt                                = 10,    10,    10,   10,
 bldt                                = 0,     0,     0,    0,
 cudt                                = 5,     5,     5,    5,
 icloud                              = 1,
 num_soil_layers                     = 4,
 num_land_cat                        = 21,
 sf_urban_physics                    = 0,     0,     0,    0,
 surface_input_source                = 1,
 /

 &fdda
 /

 &dynamics
 w_damping                           = 0,
 diff_opt                            = 1,      1,      1,    1,
 km_opt                              = 4,      4,      4,    4,
 diff_6th_opt                        = 0,      0,      0,    0,
 diff_6th_factor                     = 0.12,   0.12,   0.12, 0.12,
 base_temp                           = 290.,
 damp_opt                            = 0,
 zdamp                               = 5000.,  5000.,  5000., 5000.,
 dampcoef                            = 0.2,    0.2,    0.2,   0.2,
 khdif                               = 0,      0,      0,     0,
 kvdif                               = 0,      0,      0,     0,
 non_hydrostatic                     = .true., .true., .true., .true.,
 moist_adv_opt                       = 1,      1,      1,     1,
 scalar_adv_opt                      = 1,      1,      1,     1,
 gwd_opt                             = 1,
 /

 &bdy_control
 spec_bdy_width                      = 5,
 spec_zone                           = 1,
 relax_zone                          = 4,
 specified                           = .true., .false.,.false.,.false.,
 nested                              = .false., .true., .true., .true.,
 /

 &grib2
 /

 &namelist_quilt
 nio_tasks_per_group = 0,
 nio_groups = 1,
 /
